data/file.pwf
TITU
IEEE 24 Barras                                                            
DCTE
(Mn) ( Val) (Mn) ( Val) (Mn) ( Val) (Mn) ( Val) (Mn) ( Val) (Mn) ( Val)
TEPA  0.01
TEPR  0.01
99999
DBAR
(Num)OETGb(   nome   )Gl( V)( A)( Pg)( Qg)( Qn)( Qm)(Bc  )( Pl)( Ql)( Sh)Are(Vf)M(1)(2)(3)(4)(5)(6)(7)(8)(9)(10
    1 L1 1BARRA---1     1035-22. 172.24.81 -50.  80.       108.  22.       11000                                   
    2 L1 2BARRA---2     1035-22. 172. 17.1 -50.  80.        97.  20.       11000                                   
    3 L  1BARRA---3     1000-20.                           180.  37.       11000                                   
    4 L  2BARRA---4      998-24.                            74.  15.       11000                                   
    5 L  1BARRA---5     1017-24.                            71.  14.       11000                                   
    6 L  2BARRA---6     1010-27.                           136.  28.-100.  11000                                   
    7 L1 1BARRA---7     1025-21. 240.53.09   0. 180.       125.  25.       11000                                   
    8 L  2BARRA---8      992-25.                           171.  35.       11000                                   
    9 L  1BARRA---9     1000-22.                           175.  36.       11000                                   
   10 L  2BARRA--10     1000-24.                           195.  40.       11000                                   
   11 L  ABARRA--11      990-16.                                           11000                                   
   12 L  SBARRA--12     1003-15.                                           11000                                   
   13 L2 ABARRA--13     1020-13.285.3117.5   0. 240.       265.  54.       21000                                   
   14 L1 SBARRA--14      980-13.   0.-36.5 -50. 200.       194.  39.       21000                                   
   15 L1 ABARRA--15     1014-4.8 215.-23.6 -50. 110.       317.  64.       21000                                   
   16 L1 SBARRA--16     1017-5.5 155.32.79 -50.  80.       100.  20.       21000                                   
   17 L  ABARRA--17     1039-1.6                                           21000                                   
   18 L1 SBARRA--18     1050-.56 400.134.4 -50. 200.       333.  68.       21000                                   
   19 L  ABARRA--19     1023-6.4                           181.  37.       21000                                   
   20 L  SBARRA--20     1038-5.3                           128.  26.       21000                                   
   21 L1 ABARRA--21     1050  0. 400.115.1 -50. 200.                       21000                                   
   22 L1 SBARRA--22     10505.87 300.-30.1 -60.  96.                       21000                                   
   23 L1 ABARRA--23     1050 -4. 660. 129.-125. 310.                       21000                                   
   24 L  SBARRA--24      984-11.                                           21000    
99999
DLIN
(De )d O d(Pa )NcEP ( R% )( X% )(Mvar)(Tap)(Tmn)(Tmx)(Phs)(Bc  )(Cn)(Ce)Ns(Cq)(1)(2)(3)(4)(5)(6)(7)(8)(9)(10
    1         2 1      .26  1.39 46.11                          175.200.  175.                                
    1         3 1     5.46 21.12  5.72                          175.220.  175.                                
    1         5 1     2.18  8.45  2.29                          175.220.  175.                                
    2         4 1     3.28 12.67  3.43                          175.220.  175.                                
    2         6 1     4.97  19.2   5.2                          175.220.  175.                                
    3         9 1     3.08  11.9  3.22                          175.220.  175.                                
    3        24 1      .23  8.39      1.015  .95  1.1          3400.600.33400.                                
    4         9 1     2.68 10.37  2.81                          175.220.  175.                                
    5        10 1     2.28  8.83  2.39                          175.220.  175.                                
    6        10 1     1.39  6.05 245.9                          175.200.  175.                                
    7         8 1     1.59  6.14  1.66                          175.220.  175.                                
    8         9 1     4.27 16.51  4.47                          175.220.  175.                                
    8        10 1     4.27 16.51  4.47                          175.220.  175.                                
    9        11 1      .23  8.39       1.03  .95  1.1          9400.600.33400.                                
    9        12 1      .23  8.39       1.03  .95  1.1          9400.600.33400.                                
   10        11 1      .23  8.39      1.015  .95 1.05         10400.600.33400.                                
   10        12 1      .23  8.39      1.015  .95 1.05         10400.600.33400.                                
   11        13 1      .61  4.76  9.99                          500.625.  500.                                
   11        14 1      .54  4.18  8.79                          500.625.  500.                                
   12        13 1      .61  4.76  9.99                          500.625.  500.                                
   12        23 1     1.24  9.66  20.3                          500.625.  500.                                
   13        23 1     1.11  8.65 18.18                          500.625.  500.                                
   14        16 1       .5  3.89  8.18                          500.625.  500.                                
   15        16 1      .22  1.73  3.64                          500.625.  500.                                
   15        21 1      .63   4.9  10.3                          500.625.  500.                                
   15        21 2      .63   4.9  10.3                          500.625.  500.                                
   15        24 1      .67  5.19 10.91                          500.625.  500.                                
   16        17 1      .33  2.59  5.45                          500.625.  500.                                
   16        19 1       .3  2.31  4.85                          500.625.  500.                                
   17        18 1      .18  1.44  3.03                          500.625.  500.                                
   17        22 1     1.35 10.53 22.12                          500.625.  500.                                
   18        21 1      .33  2.59  5.45                          500.625.  500.                                
   18        21 2      .33  2.59  5.45                          500.625.  500.                                
   19        20 1      .51  3.96  8.33                          500.625.  500.                                
   19        20 2      .51  3.96  8.33                          500.625.  500.                                
   20        23 1      .28  2.16  4.55                          500.625.  500.                                
   20        23 2      .28  2.16  4.55                          500.625.  500.                                
   21        22 1      .87  6.78 14.24                          500.625.  500.
99999
FIM